Version 4
SHEET 1 2232 680
WIRE 704 -960 48 -960
WIRE 768 -864 672 -864
WIRE 704 -784 704 -960
WIRE 592 -768 592 -864
WIRE 592 -768 560 -768
WIRE 672 -768 592 -768
WIRE 768 -752 768 -864
WIRE 768 -752 736 -752
WIRE 864 -752 768 -752
WIRE 48 -736 48 -960
WIRE 96 -736 48 -736
WIRE 176 -736 96 -736
WIRE 432 -736 400 -736
WIRE 672 -736 432 -736
WIRE 560 -656 560 -768
WIRE 560 -656 528 -656
WIRE 576 -656 560 -656
WIRE 704 -656 704 -720
WIRE 704 -656 656 -656
WIRE 96 -640 96 -672
WIRE 288 -640 288 -672
WIRE 288 -640 96 -640
WIRE 432 -640 432 -672
WIRE 432 -640 288 -640
WIRE 288 -608 288 -640
WIRE 704 -608 704 -656
WIRE 864 -416 864 -752
WIRE 864 -416 688 -416
WIRE 448 -400 448 -656
WIRE 448 -400 256 -400
WIRE -288 -224 -512 -224
WIRE 16 -224 -288 -224
WIRE 48 -224 48 -736
WIRE 48 -224 16 -224
WIRE 256 -224 256 -400
WIRE 256 -224 48 -224
WIRE 688 -224 688 -416
WIRE -288 -208 -288 -224
WIRE 256 -128 256 -224
WIRE 16 -80 16 -224
WIRE 96 -80 16 -80
WIRE -512 0 -512 -224
WIRE 96 32 -176 32
WIRE 480 32 416 32
WIRE -176 48 -176 32
WIRE 480 48 480 32
WIRE 480 144 480 112
WIRE 480 144 416 144
WIRE 544 144 480 144
WIRE 720 144 624 144
WIRE 992 144 720 144
WIRE 720 176 720 144
WIRE -80 256 -144 256
WIRE 96 256 -80 256
WIRE 512 256 416 256
WIRE 656 256 512 256
WIRE 688 256 688 -144
WIRE 688 256 656 256
WIRE -80 272 -80 256
WIRE 992 288 992 144
WIRE -144 336 -144 256
WIRE 656 336 656 256
WIRE 96 368 16 368
WIRE 496 368 416 368
WIRE -80 384 -80 352
WIRE 16 384 16 368
WIRE 496 384 496 368
WIRE -512 544 -512 80
WIRE -288 544 -288 -144
WIRE -288 544 -512 544
WIRE -176 544 -176 112
WIRE -176 544 -288 544
WIRE -144 544 -144 400
WIRE -144 544 -176 544
WIRE -80 544 -80 448
WIRE -80 544 -144 544
WIRE 16 544 16 448
WIRE 16 544 -80 544
WIRE 256 544 256 416
WIRE 256 544 16 544
WIRE 496 544 496 464
WIRE 496 544 256 544
WIRE 656 544 656 416
WIRE 656 544 496 544
WIRE 720 544 720 240
WIRE 720 544 656 544
WIRE 992 544 992 368
WIRE 992 544 720 544
WIRE 256 592 256 544
FLAG 256 592 0
FLAG -512 -224 VFBin
FLAG 512 256 VFBsw
FLAG 288 -608 0
FLAG 704 -608 0
SYMBOL PowerProducts\\ADP2386 256 144 R0
SYMATTR InstName U1
SYMBOL res 480 368 R0
SYMATTR InstName R1
SYMATTR Value 100k
SYMATTR SpiceLine tol=1 pwr=0.1
SYMBOL polcap -304 -208 R0
WINDOW 3 24 56 Left 2
SYMATTR Value 47µ
SYMATTR InstName C1
SYMATTR Description Capacitor
SYMATTR Type cap
SYMATTR SpiceLine V=10 Irms=3.53553 Rser=0.018 Lser=0
SYMBOL cap 464 48 R0
SYMATTR InstName C2
SYMATTR Value 0.1µ
SYMATTR SpiceLine V=50 Irms=1.78 Rser=0.0675534 Lser=0 mfg="KEMET" pn="C1210F104K5RAC" type="X7R"
SYMBOL cap 0 384 R0
SYMATTR InstName C3
SYMATTR Value 110p
SYMATTR SpiceLine V=25 Irms=15.6m Rser=19.9098 Lser=0
SYMBOL cap -96 384 R0
SYMATTR InstName C4
SYMATTR Value 1500p
SYMATTR SpiceLine V=40 Irms=5.25 Rser=0.0257681 Lser=0
SYMBOL polcap 704 176 R0
WINDOW 3 24 56 Left 2
SYMATTR Value 100µ
SYMATTR InstName C5
SYMATTR Description Capacitor
SYMATTR Type cap
SYMATTR SpiceLine V=25 Irms=0 Rser=0.2 Lser=0
SYMBOL res -96 256 R0
SYMATTR InstName R3
SYMATTR Value 31.6k
SYMATTR SpiceLine tol=1 pwr=0.1
SYMBOL cap -192 48 R0
SYMATTR InstName C6
SYMATTR Value 1µ
SYMATTR SpiceLine V=16 Irms=0 Rser=0.007 Lser=0 mfg="TDK" pn="C3216X7RIC105K" type="X7R"
SYMBOL ind 640 128 R90
WINDOW 0 5 56 VBottom 2
WINDOW 3 32 56 VTop 2
SYMATTR InstName L1
SYMATTR Value 3.3µ
SYMATTR SpiceLine Ipk=18.6 Rser=0.0108 Rpar=0 Cpar=0 mfg="Vishay" pn="IHLP4040DZ01-3R3"
SYMBOL res 976 272 R0
SYMATTR InstName R5
SYMATTR Value 2
SYMATTR SpiceLine tol=1 pwr=25
SYMBOL voltage -512 -16 R0
WINDOW 3 24 44 Left 2
WINDOW 123 0 0 Left 0
WINDOW 39 24 72 Left 2
SYMATTR Value 8.4
SYMATTR SpiceLine Rser=0.5
SYMATTR InstName V1
SYMBOL cap -160 336 R0
SYMATTR InstName C7
SYMATTR Value 4.7pf
SYMBOL Opamps\\LT1013 704 -816 R0
SYMATTR InstName U2
SYMBOL res 672 -240 R0
SYMATTR InstName R4
SYMATTR Value 24k
SYMBOL res 640 320 R0
SYMATTR InstName R11
SYMATTR Value 4.7k
SYMBOL References\\LT6656-2.5 288 -736 R0
SYMATTR InstName U3
SYMBOL res 544 -672 R90
WINDOW 0 0 56 VBottom 2
WINDOW 3 32 56 VTop 2
SYMATTR InstName R2
SYMATTR Value 33k
SYMBOL res 560 -640 R270
WINDOW 0 32 56 VTop 2
WINDOW 3 0 56 VBottom 2
SYMATTR InstName R6
SYMATTR Value 15k
SYMBOL cap 416 -736 R0
SYMATTR InstName C8
SYMATTR Value 1µ
SYMBOL cap 80 -736 R0
SYMATTR InstName C9
SYMATTR Value 1µ
SYMBOL res 688 -880 R90
WINDOW 0 0 56 VBottom 2
WINDOW 3 32 56 VTop 2
SYMATTR InstName R7
SYMATTR Value 30k
TEXT -544 616 Left 2 !.tran 0 1 0 0.1 startup uic
